// -*- C++ -*-
// File generated by PyFoam - sorry for the ugliness

FoamFile
{
 version 2.0;
 format ascii; 	
 root ""; 	
 case ""; 	
 instance ""; 	
 local ""; 	
 class dictionary; 	
 object extrudeProperties; 	
}

sourceCase "./naca0015";

extrudeModel linearNormal;

nLayers 1;

mergeFaces false;

linearNormalCoeffs
{
  thickness 1;
}

sourcePatch XMAX;

constructFrom patch;

flipNormals false;

