/*--------------------------------*- C++ -*----------------------------------*\
| =========                 |                                                 |
| \\      /  F ield         | OpenFOAM: The Open Source CFD Toolbox           |
|  \\    /   O peration     | Version:  4.x                                   |
|   \\  /    A nd           | Web:      www.OpenFOAM.org                      |
|    \\/     M anipulation  |                                                 |
\*---------------------------------------------------------------------------*/
FoamFile
{
    version     2.0;
    format      ascii;
    class       dictionary;
    object      blockMeshDict;
}

// * * * * * * * * * * * * * * * * * * * * * * * * * * * * * * * * * * * * * //

convertToMeters 1;

vertices
(
    (-0.33 0 -0.15)
    (0.77 0 -0.15)
    (0.77 0.1 -0.15)
    (-0.33 0.1 -0.15)
    (-0.33 0 0.15)
    (0.77 0 0.15)
    (0.77 0.1 0.15)
    (-0.33 0.1 0.15)
);

blocks
(
    hex (0 1 2 3 4 5 6 7) (80 1 32) simpleGrading (1 1 1)
);

edges
(
);

boundary
(
    YMAX
    {
        type empty;
        faces
        (
            (3 7 6 2)
        );
    }
    YMIN
    {
        type empty;
        faces
        (
            (1 5 4 0)
        );
    }
    XMIN
    {
        type patch;
        faces
        (
            (0 4 7 3)
        );
    }
    XMAX
    {
        type patch;
        faces
        (
            (2 6 5 1)
        );
    }
    ZMIN
    {
        type wall;
        faces
        (
            (0 3 2 1)
        );
    }
    ZMAX
    {
        type wall;
        faces
        (
            (4 5 6 7)
        );
    }
);

// ************************************************************************* //
