// -*- C++ -*-
// File generated by PyFoam - sorry for the ugliness

FoamFile
{
 version 2.0;
 format ascii; 	
 root ""; 	
 case ""; 	
 instance ""; 	
 local ""; 	
 class dictionary; 	
 object controlDict; 	
}

deltaT 1;

startTime 0;

writePrecision 6;

writeCompression uncompressed;

writeInterval 100;

timeFormat general;

application interFoam;

runTimeModifiable yes;

writeFormat binary;

maxDeltaT 0.1;

graphFormat raw;

writeControl adjustableRunTime;

libs
  (
    "libFunctionObjectsGL.so"
    "libWaveInletFvPatchField.so"
    "libWaves.so"
    "libBCsGL.so"
    "libincompressibleRASModelsGL.so"
    "libOpenFOAM.so"
  );

stopAt endTime;

adjustTimeStep yes;

endTime 1000;

purgeWrite 0;

maxCo 0.5;

timePrecision 6;

startFrom latestTime;

