/*--------------------------------*- C++ -*----------------------------------*\
| =========                 |                                                 |
| \\      /  F ield         | OpenFOAM: The Open Source CFD Toolbox           |
|  \\    /   O peration     | Version:  4.x                                   |
|   \\  /    A nd           | Web:      www.OpenFOAM.org                      |
|    \\/     M anipulation  |                                                 |
\*---------------------------------------------------------------------------*/
FoamFile
{
    version     2.0;
    format      ascii;
    class       dictionary;
    object      extrudeProperties;
}
// * * * * * * * * * * * * * * * * * * * * * * * * * * * * * * * * * * * * * //

constructFrom mesh;
sourceCase "$FOAM_CASE";
sourcePatches (YMIN);

flipNormals false;

extrudeModel        linearDirection;

nLayers             1;
expansionRatio      1;

linearDirectionCoeffs
{
    axisPt          (0 0 0);
    direction       (0 1 0);
    thickness       0.1;
}

mergeFaces false;

// * * * * * * * * * * * * * * * * * * * * * * * * * * * * * * * * * * * * * //
