/*--------------------------------*- C++ -*----------------------------------*\
| =========                 |                                                 |
| \\      /  F ield         | OpenFOAM: The Open Source CFD Toolbox           |
|  \\    /   O peration     | Version:  4.x                                   |
|   \\  /    A nd           | Web:      www.OpenFOAM.org                      |
|    \\/     M anipulation  |                                                 |
\*---------------------------------------------------------------------------*/
FoamFile
{
    version     2.0;
    format      ascii;
    class       extendedFeatureEdgeMesh;
    location    "constant/extendedFeatureEdgeMesh";
    object      naca0015.extendedFeatureEdgeMesh;
}
// * * * * * * * * * * * * * * * * * * * * * * * * * * * * * * * * * * * * * //

// points

1990
(
(-0.0294959 0.175 0.00542607)
(-0.0295442 0.175 0.00520945)
(-0.0295442 -0.025 0.00520945)
(-0.0294959 -0.025 0.00542607)
(-0.0294702 0.175 0.00551424)
(-0.0294702 -0.025 0.00551424)
(-0.0294482 0.175 0.00558127)
(-0.0294482 -0.025 0.00558127)
(-0.0294282 0.175 0.00563736)
(-0.0294282 -0.025 0.00563736)
(-0.0294094 0.175 0.00568646)
(-0.0294094 -0.025 0.00568646)
(-0.0293914 0.175 0.00573059)
(-0.0293914 -0.025 0.00573059)
(-0.0293741 0.175 0.00577095)
(-0.0293741 -0.025 0.00577095)
(-0.0293574 0.175 0.00580834)
(-0.0293574 -0.025 0.00580834)
(-0.0293411 0.175 0.0058433)
(-0.0293411 -0.025 0.0058433)
(-0.0293251 0.175 0.00587621)
(-0.0293251 -0.025 0.00587621)
(-0.0293095 0.175 0.00590739)
(-0.0293095 -0.025 0.00590739)
(-0.0292941 0.175 0.00593705)
(-0.0292941 -0.025 0.00593705)
(-0.0292789 0.175 0.0059654)
(-0.0292789 -0.025 0.0059654)
(-0.029264 0.175 0.00599257)
(-0.029264 -0.025 0.00599257)
(-0.0292492 0.175 0.00601869)
(-0.0292492 -0.025 0.00601869)
(-0.0292346 0.175 0.00604387)
(-0.0292346 -0.025 0.00604387)
(-0.0292202 0.175 0.00606819)
(-0.0292202 -0.025 0.00606819)
(-0.0292059 0.175 0.00609173)
(-0.0292059 -0.025 0.00609173)
(-0.0291917 0.175 0.00611455)
(-0.0291917 -0.025 0.00611455)
(-0.0291776 0.175 0.0061367)
(-0.0291776 -0.025 0.0061367)
(-0.0291637 0.175 0.00615824)
(-0.0291637 -0.025 0.00615824)
(-0.0291498 0.175 0.00617921)
(-0.0291498 -0.025 0.00617921)
(-0.0291361 0.175 0.00619965)
(-0.0291361 -0.025 0.00619965)
(-0.0291224 0.175 0.00621959)
(-0.0291224 -0.025 0.00621959)
(-0.0291088 0.175 0.00623907)
(-0.0291088 -0.025 0.00623907)
(-0.0290953 0.175 0.0062581)
(-0.0290953 -0.025 0.0062581)
(-0.0290819 0.175 0.00627672)
(-0.0290819 -0.025 0.00627672)
(-0.0290685 0.175 0.00629495)
(-0.0290685 -0.025 0.00629495)
(-0.0290552 0.175 0.0063128)
(-0.0290552 -0.025 0.0063128)
(-0.029042 0.175 0.00633031)
(-0.029042 -0.025 0.00633031)
(-0.0290288 0.175 0.00634748)
(-0.0290288 -0.025 0.00634748)
(-0.0290157 0.175 0.00636434)
(-0.0290157 -0.025 0.00636434)
(-0.0290026 0.175 0.00638089)
(-0.0290026 -0.025 0.00638089)
(-0.0289896 0.175 0.00639715)
(-0.0289896 -0.025 0.00639715)
(-0.0289766 0.175 0.00641313)
(-0.0289766 -0.025 0.00641313)
(-0.0289637 0.175 0.00642885)
(-0.0289637 -0.025 0.00642885)
(-0.0289508 0.175 0.00644431)
(-0.0289508 -0.025 0.00644431)
(-0.0289379 0.175 0.00645953)
(-0.0289379 -0.025 0.00645953)
(-0.0289252 0.175 0.00647451)
(-0.0289252 -0.025 0.00647451)
(-0.0289124 0.175 0.00648927)
(-0.0289124 -0.025 0.00648927)
(-0.0288997 0.175 0.00650381)
(-0.0288997 -0.025 0.00650381)
(-0.028887 0.175 0.00651814)
(-0.028887 -0.025 0.00651814)
(-0.0288743 0.175 0.00653227)
(-0.0288743 -0.025 0.00653227)
(-0.0288617 0.175 0.00654621)
(-0.0288617 -0.025 0.00654621)
(-0.0288492 0.175 0.00655996)
(-0.0288492 -0.025 0.00655996)
(-0.0288366 0.175 0.00657352)
(-0.0288366 -0.025 0.00657352)
(-0.0288241 0.175 0.00658691)
(-0.0288241 -0.025 0.00658691)
(-0.0288116 0.175 0.00660013)
(-0.0288116 -0.025 0.00660013)
(-0.0287992 0.175 0.00661318)
(-0.0287992 -0.025 0.00661318)
(-0.0287867 0.175 0.00662607)
(-0.0287867 -0.025 0.00662607)
(-0.0287743 0.175 0.00663881)
(-0.0287743 -0.025 0.00663881)
(-0.028762 0.175 0.00665139)
(-0.028762 -0.025 0.00665139)
(-0.0287496 0.175 0.00666383)
(-0.0287496 -0.025 0.00666383)
(-0.0287373 0.175 0.00667613)
(-0.0287373 -0.025 0.00667613)
(-0.028725 0.175 0.00668828)
(-0.028725 -0.025 0.00668828)
(-0.0287127 0.175 0.00670031)
(-0.0287127 -0.025 0.00670031)
(-0.0287005 0.175 0.0067122)
(-0.0287005 -0.025 0.0067122)
(-0.0286882 0.175 0.00672396)
(-0.0286882 -0.025 0.00672396)
(-0.028676 0.175 0.0067356)
(-0.028676 -0.025 0.0067356)
(-0.0286638 0.175 0.00674712)
(-0.0286638 -0.025 0.00674712)
(-0.0286517 0.175 0.00675851)
(-0.0286517 -0.025 0.00675851)
(-0.0286395 0.175 0.0067698)
(-0.0286395 -0.025 0.0067698)
(-0.0286274 0.175 0.00678097)
(-0.0286274 -0.025 0.00678097)
(-0.0286153 0.175 0.00679203)
(-0.0286153 -0.025 0.00679203)
(-0.0286032 0.175 0.00680298)
(-0.0286032 -0.025 0.00680298)
(-0.0285912 0.175 0.00681383)
(-0.0285912 -0.025 0.00681383)
(-0.0285791 0.175 0.00682457)
(-0.0285791 -0.025 0.00682457)
(-0.0285671 0.175 0.00683522)
(-0.0285671 -0.025 0.00683522)
(-0.0285551 0.175 0.00684576)
(-0.0285551 -0.025 0.00684576)
(-0.0285431 0.175 0.00685621)
(-0.0285431 -0.025 0.00685621)
(-0.0285311 0.175 0.00686657)
(-0.0285311 -0.025 0.00686657)
(-0.0285191 0.175 0.00687683)
(-0.0285191 -0.025 0.00687683)
(-0.0285072 0.175 0.006887)
(-0.0285072 -0.025 0.006887)
(-0.0284952 0.175 0.00689709)
(-0.0284952 -0.025 0.00689709)
(-0.0284833 0.175 0.00690708)
(-0.0284833 -0.025 0.00690708)
(-0.0284714 0.175 0.006917)
(-0.0284714 -0.025 0.006917)
(-0.0284595 0.175 0.00692683)
(-0.0284595 -0.025 0.00692683)
(-0.0284477 0.175 0.00693657)
(-0.0284477 -0.025 0.00693657)
(-0.0284358 0.175 0.00694624)
(-0.0284358 -0.025 0.00694624)
(-0.028424 0.175 0.00695583)
(-0.028424 -0.025 0.00695583)
(-0.0284121 0.175 0.00696534)
(-0.0284121 -0.025 0.00696534)
(-0.0284003 0.175 0.00697478)
(-0.0284003 -0.025 0.00697478)
(-0.0283885 0.175 0.00698414)
(-0.0283885 -0.025 0.00698414)
(-0.0283767 0.175 0.00699343)
(-0.0283767 -0.025 0.00699343)
(-0.0283649 0.175 0.00700265)
(-0.0283649 -0.025 0.00700265)
(-0.0283532 0.175 0.0070118)
(-0.0283532 -0.025 0.0070118)
(-0.0283414 0.175 0.00702087)
(-0.0283414 -0.025 0.00702087)
(-0.0283297 0.175 0.00702988)
(-0.0283297 -0.025 0.00702988)
(-0.0283179 0.175 0.00703883)
(-0.0283179 -0.025 0.00703883)
(-0.0283062 0.175 0.0070477)
(-0.0283062 -0.025 0.0070477)
(-0.0282945 0.175 0.00705652)
(-0.0282945 -0.025 0.00705652)
(-0.0282828 0.175 0.00706526)
(-0.0282828 -0.025 0.00706526)
(-0.0282711 0.175 0.00707395)
(-0.0282711 -0.025 0.00707395)
(-0.0282594 0.175 0.00708257)
(-0.0282594 -0.025 0.00708257)
(-0.0282478 0.175 0.00709114)
(-0.0282478 -0.025 0.00709114)
(-0.0282361 0.175 0.00709964)
(-0.0282361 -0.025 0.00709964)
(-0.0282245 0.175 0.00710809)
(-0.0282245 -0.025 0.00710809)
(-0.0282129 0.175 0.00711647)
(-0.0282129 -0.025 0.00711647)
(-0.0282012 0.175 0.0071248)
(-0.0282012 -0.025 0.0071248)
(-0.0281896 0.175 0.00713308)
(-0.0281896 -0.025 0.00713308)
(-0.028178 0.175 0.0071413)
(-0.028178 -0.025 0.0071413)
(-0.0281664 0.175 0.00714946)
(-0.0281664 -0.025 0.00714946)
(-0.0281548 0.175 0.00715757)
(-0.0281548 -0.025 0.00715757)
(-0.0281433 0.175 0.00716563)
(-0.0281433 -0.025 0.00716563)
(-0.0281317 0.175 0.00717363)
(-0.0281317 -0.025 0.00717363)
(-0.0281201 0.175 0.00718159)
(-0.0281201 -0.025 0.00718159)
(-0.0281086 0.175 0.00718949)
(-0.0281086 -0.025 0.00718949)
(-0.0280971 0.175 0.00719734)
(-0.0280971 -0.025 0.00719734)
(-0.0280855 0.175 0.00720515)
(-0.0280855 -0.025 0.00720515)
(-0.028074 0.175 0.0072129)
(-0.028074 -0.025 0.0072129)
(-0.0280625 0.175 0.00722061)
(-0.0280625 -0.025 0.00722061)
(-0.028051 0.175 0.00722827)
(-0.028051 -0.025 0.00722827)
(-0.0280395 0.175 0.00723588)
(-0.0280395 -0.025 0.00723588)
(-0.028028 0.175 0.00724345)
(-0.028028 -0.025 0.00724345)
(-0.0280165 0.175 0.00725097)
(-0.0280165 -0.025 0.00725097)
(-0.028005 0.175 0.00725844)
(-0.028005 -0.025 0.00725844)
(-0.0279936 0.175 0.00726588)
(-0.0279936 -0.025 0.00726588)
(-0.0279821 0.175 0.00727326)
(-0.0279821 -0.025 0.00727326)
(-0.0279707 0.175 0.00728061)
(-0.0279707 -0.025 0.00728061)
(-0.0279592 0.175 0.00728791)
(-0.0279592 -0.025 0.00728791)
(-0.0279478 0.175 0.00729517)
(-0.0279478 -0.025 0.00729517)
(-0.0279364 0.175 0.00730239)
(-0.0279364 -0.025 0.00730239)
(-0.0279249 0.175 0.00730957)
(-0.0279249 -0.025 0.00730957)
(-0.0279135 0.175 0.0073167)
(-0.0279135 -0.025 0.0073167)
(-0.0279021 0.175 0.0073238)
(-0.0279021 -0.025 0.0073238)
(-0.0278907 0.175 0.00733085)
(-0.0278907 -0.025 0.00733085)
(-0.0278793 0.175 0.00733787)
(-0.0278793 -0.025 0.00733787)
(-0.027868 0.175 0.00734485)
(-0.027868 -0.025 0.00734485)
(-0.0278566 0.175 0.00735179)
(-0.0278566 -0.025 0.00735179)
(-0.0278452 0.175 0.00735869)
(-0.0278452 -0.025 0.00735869)
(-0.0278338 0.175 0.00736555)
(-0.0278338 -0.025 0.00736555)
(-0.0278225 0.175 0.00737238)
(-0.0278225 -0.025 0.00737238)
(-0.0278111 0.175 0.00737917)
(-0.0278111 -0.025 0.00737917)
(-0.0277998 0.175 0.00738593)
(-0.0277998 -0.025 0.00738593)
(-0.0277885 0.175 0.00739265)
(-0.0277885 -0.025 0.00739265)
(-0.0277771 0.175 0.00739933)
(-0.0277771 -0.025 0.00739933)
(-0.0277658 0.175 0.00740598)
(-0.0277658 -0.025 0.00740598)
(-0.0277545 0.175 0.00741259)
(-0.0277545 -0.025 0.00741259)
(-0.0277432 0.175 0.00741917)
(-0.0277432 -0.025 0.00741917)
(-0.0277318 0.175 0.00742571)
(-0.0277318 -0.025 0.00742571)
(-0.0277205 0.175 0.00743223)
(-0.0277205 -0.025 0.00743223)
(-0.0277092 0.175 0.0074387)
(-0.0277092 -0.025 0.0074387)
(-0.027698 0.175 0.00744515)
(-0.027698 -0.025 0.00744515)
(-0.0276867 0.175 0.00745156)
(-0.0276867 -0.025 0.00745156)
(-0.0276754 0.175 0.00745794)
(-0.0276754 -0.025 0.00745794)
(-0.0276641 0.175 0.00746429)
(-0.0276641 -0.025 0.00746429)
(-0.0276529 0.175 0.00747061)
(-0.0276529 -0.025 0.00747061)
(-0.0276416 0.175 0.00747689)
(-0.0276416 -0.025 0.00747689)
(-0.0276303 0.175 0.00748315)
(-0.0276303 -0.025 0.00748315)
(-0.0276191 0.175 0.00748937)
(-0.0276191 -0.025 0.00748937)
(-0.0276078 0.175 0.00749557)
(-0.0276078 -0.025 0.00749557)
(-0.0275966 0.175 0.00750173)
(-0.0275966 -0.025 0.00750173)
(-0.0275854 0.175 0.00750786)
(-0.0275854 -0.025 0.00750786)
(-0.0275741 0.175 0.00751397)
(-0.0275741 -0.025 0.00751397)
(-0.0275629 0.175 0.00752004)
(-0.0275629 -0.025 0.00752004)
(-0.0275517 0.175 0.00752609)
(-0.0275517 -0.025 0.00752609)
(-0.0275405 0.175 0.00753211)
(-0.0275405 -0.025 0.00753211)
(-0.0275293 0.175 0.0075381)
(-0.0275293 -0.025 0.0075381)
(-0.027518 0.175 0.00754406)
(-0.027518 -0.025 0.00754406)
(-0.0275068 0.175 0.00754999)
(-0.0275068 -0.025 0.00754999)
(-0.0274957 0.175 0.0075559)
(-0.0274957 -0.025 0.0075559)
(-0.0274845 0.175 0.00756178)
(-0.0274845 -0.025 0.00756178)
(-0.0274733 0.175 0.00756763)
(-0.0274733 -0.025 0.00756763)
(-0.0274621 0.175 0.00757345)
(-0.0274621 -0.025 0.00757345)
(-0.0274509 0.175 0.00757925)
(-0.0274509 -0.025 0.00757925)
(-0.0274397 0.175 0.00758502)
(-0.0274397 -0.025 0.00758502)
(-0.0274286 0.175 0.00759077)
(-0.0274286 -0.025 0.00759077)
(-0.0274174 0.175 0.00759649)
(-0.0274174 -0.025 0.00759649)
(-0.0274063 0.175 0.00760218)
(-0.0274063 -0.025 0.00760218)
(-0.0273951 0.175 0.00760785)
(-0.0273951 -0.025 0.00760785)
(-0.027384 0.175 0.00761349)
(-0.027384 -0.025 0.00761349)
(-0.0273728 0.175 0.00761911)
(-0.0273728 -0.025 0.00761911)
(-0.0273617 0.175 0.00762471)
(-0.0273617 -0.025 0.00762471)
(-0.0273505 0.175 0.00763027)
(-0.0273505 -0.025 0.00763027)
(-0.0273394 0.175 0.00763582)
(-0.0273394 -0.025 0.00763582)
(-0.0273283 0.175 0.00764134)
(-0.0273283 -0.025 0.00764134)
(-0.0273172 0.175 0.00764684)
(-0.0273172 -0.025 0.00764684)
(-0.027306 0.175 0.00765231)
(-0.027306 -0.025 0.00765231)
(-0.0272949 0.175 0.00765776)
(-0.0272949 -0.025 0.00765776)
(-0.0272838 0.175 0.00766318)
(-0.0272838 -0.025 0.00766318)
(-0.0272727 0.175 0.00766858)
(-0.0272727 -0.025 0.00766858)
(-0.0272616 0.175 0.00767396)
(-0.0272616 -0.025 0.00767396)
(-0.0272505 0.175 0.00767932)
(-0.0272505 -0.025 0.00767932)
(-0.0272394 0.175 0.00768465)
(-0.0272394 -0.025 0.00768465)
(-0.0272283 0.175 0.00768997)
(-0.0272283 -0.025 0.00768997)
(-0.0272172 0.175 0.00769525)
(-0.0272172 -0.025 0.00769525)
(-0.0272061 0.175 0.00770052)
(-0.0272061 -0.025 0.00770052)
(-0.0271951 0.175 0.00770577)
(-0.0271951 -0.025 0.00770577)
(-0.027184 0.175 0.00771099)
(-0.027184 -0.025 0.00771099)
(-0.0271729 0.175 0.00771619)
(-0.0271729 -0.025 0.00771619)
(-0.0271618 0.175 0.00772137)
(-0.0271618 -0.025 0.00772137)
(-0.0271508 0.175 0.00772653)
(-0.0271508 -0.025 0.00772653)
(-0.0271397 0.175 0.00773167)
(-0.0271397 -0.025 0.00773167)
(-0.0271287 0.175 0.00773679)
(-0.0271287 -0.025 0.00773679)
(-0.0271176 0.175 0.00774188)
(-0.0271176 -0.025 0.00774188)
(-0.0271066 0.175 0.00774696)
(-0.0271066 -0.025 0.00774696)
(-0.0270955 0.175 0.00775201)
(-0.0270955 -0.025 0.00775201)
(-0.0270845 0.175 0.00775705)
(-0.0270845 -0.025 0.00775705)
(-0.0270734 0.175 0.00776206)
(-0.0270734 -0.025 0.00776206)
(-0.0270624 0.175 0.00776706)
(-0.0270624 -0.025 0.00776706)
(-0.0269522 0.175 0.00781593)
(-0.0269522 -0.025 0.00781593)
(-0.0268424 0.175 0.00786296)
(-0.0268424 -0.025 0.00786296)
(-0.0267329 0.175 0.00790825)
(-0.0267329 -0.025 0.00790825)
(-0.0266236 0.175 0.00795192)
(-0.0266236 -0.025 0.00795192)
(-0.0265147 0.175 0.00799407)
(-0.0265147 -0.025 0.00799407)
(-0.0264059 0.175 0.00803478)
(-0.0264059 -0.025 0.00803478)
(-0.0262975 0.175 0.00807414)
(-0.0262975 -0.025 0.00807414)
(-0.0261892 0.175 0.0081122)
(-0.0261892 -0.025 0.0081122)
(-0.0260812 0.175 0.00814905)
(-0.0260812 -0.025 0.00814905)
(-0.0259733 0.175 0.00818475)
(-0.0259733 -0.025 0.00818475)
(-0.0258657 0.175 0.00821933)
(-0.0258657 -0.025 0.00821933)
(-0.0257582 0.175 0.00825287)
(-0.0257582 -0.025 0.00825287)
(-0.025651 0.175 0.0082854)
(-0.025651 -0.025 0.0082854)
(-0.0255438 0.175 0.00831696)
(-0.0255438 -0.025 0.00831696)
(-0.0254369 0.175 0.00834761)
(-0.0254369 -0.025 0.00834761)
(-0.0253301 0.175 0.00837737)
(-0.0253301 -0.025 0.00837737)
(-0.0252235 0.175 0.00840627)
(-0.0252235 -0.025 0.00840627)
(-0.025117 0.175 0.00843436)
(-0.025117 -0.025 0.00843436)
(-0.0250106 0.175 0.00846167)
(-0.0250106 -0.025 0.00846167)
(-0.0249044 0.175 0.00848821)
(-0.0249044 -0.025 0.00848821)
(-0.0247983 0.175 0.00851402)
(-0.0247983 -0.025 0.00851402)
(-0.0246923 0.175 0.00853913)
(-0.0246923 -0.025 0.00853913)
(-0.0245865 0.175 0.00856354)
(-0.0245865 -0.025 0.00856354)
(-0.0244807 0.175 0.0085873)
(-0.0244807 -0.025 0.0085873)
(-0.0243751 0.175 0.00861042)
(-0.0243751 -0.025 0.00861042)
(-0.0242696 0.175 0.00863292)
(-0.0242696 -0.025 0.00863292)
(-0.0241642 0.175 0.00865481)
(-0.0241642 -0.025 0.00865481)
(-0.0240589 0.175 0.00867612)
(-0.0240589 -0.025 0.00867612)
(-0.0239537 0.175 0.00869687)
(-0.0239537 -0.025 0.00869687)
(-0.0238486 0.175 0.00871706)
(-0.0238486 -0.025 0.00871706)
(-0.0237436 0.175 0.00873671)
(-0.0237436 -0.025 0.00873671)
(-0.0236387 0.175 0.00875585)
(-0.0236387 -0.025 0.00875585)
(-0.0235339 0.175 0.00877447)
(-0.0235339 -0.025 0.00877447)
(-0.0234291 0.175 0.0087926)
(-0.0234291 -0.025 0.0087926)
(-0.0233245 0.175 0.00881025)
(-0.0233245 -0.025 0.00881025)
(-0.0232199 0.175 0.00882743)
(-0.0232199 -0.025 0.00882743)
(-0.0231154 0.175 0.00884415)
(-0.0231154 -0.025 0.00884415)
(-0.023011 0.175 0.00886042)
(-0.023011 -0.025 0.00886042)
(-0.0229067 0.175 0.00887625)
(-0.0229067 -0.025 0.00887625)
(-0.0228024 0.175 0.00889166)
(-0.0228024 -0.025 0.00889166)
(-0.0226982 0.175 0.00890664)
(-0.0226982 -0.025 0.00890664)
(-0.0225941 0.175 0.00892122)
(-0.0225941 -0.025 0.00892122)
(-0.0224901 0.175 0.0089354)
(-0.0224901 -0.025 0.0089354)
(-0.0223861 0.175 0.00894919)
(-0.0223861 -0.025 0.00894919)
(-0.0222822 0.175 0.0089626)
(-0.0222822 -0.025 0.0089626)
(-0.0221783 0.175 0.00897563)
(-0.0221783 -0.025 0.00897563)
(-0.0220746 0.175 0.00898829)
(-0.0220746 -0.025 0.00898829)
(-0.0219708 0.175 0.0090006)
(-0.0219708 -0.025 0.0090006)
(-0.0218672 0.175 0.00901255)
(-0.0218672 -0.025 0.00901255)
(-0.0217636 0.175 0.00902415)
(-0.0217636 -0.025 0.00902415)
(-0.0216601 0.175 0.00903542)
(-0.0216601 -0.025 0.00903542)
(-0.0215566 0.175 0.00904635)
(-0.0215566 -0.025 0.00904635)
(-0.0214532 0.175 0.00905695)
(-0.0214532 -0.025 0.00905695)
(-0.0213498 0.175 0.00906724)
(-0.0213498 -0.025 0.00906724)
(-0.0212465 0.175 0.00907721)
(-0.0212465 -0.025 0.00907721)
(-0.0211433 0.175 0.00908686)
(-0.0211433 -0.025 0.00908686)
(-0.0210401 0.175 0.00909622)
(-0.0210401 -0.025 0.00909622)
(-0.020937 0.175 0.00910527)
(-0.020937 -0.025 0.00910527)
(-0.0208339 0.175 0.00911403)
(-0.0208339 -0.025 0.00911403)
(-0.0207308 0.175 0.0091225)
(-0.0207308 -0.025 0.0091225)
(-0.0206279 0.175 0.00913069)
(-0.0206279 -0.025 0.00913069)
(-0.0205249 0.175 0.00913859)
(-0.0205249 -0.025 0.00913859)
(-0.020422 0.175 0.00914622)
(-0.020422 -0.025 0.00914622)
(-0.0203192 0.175 0.00915358)
(-0.0203192 -0.025 0.00915358)
(-0.0202164 0.175 0.00916067)
(-0.0202164 -0.025 0.00916067)
(-0.0201137 0.175 0.0091675)
(-0.0201137 -0.025 0.0091675)
(-0.020011 0.175 0.00917407)
(-0.020011 -0.025 0.00917407)
(-0.0199083 0.175 0.00918038)
(-0.0199083 -0.025 0.00918038)
(-0.0198057 0.175 0.00918644)
(-0.0198057 -0.025 0.00918644)
(-0.0197031 0.175 0.00919226)
(-0.0197031 -0.025 0.00919226)
(-0.0196006 0.175 0.00919783)
(-0.0196006 -0.025 0.00919783)
(-0.0194981 0.175 0.00920316)
(-0.0194981 -0.025 0.00920316)
(-0.0193957 0.175 0.00920825)
(-0.0193957 -0.025 0.00920825)
(-0.0192933 0.175 0.00921311)
(-0.0192933 -0.025 0.00921311)
(-0.0191909 0.175 0.00921773)
(-0.0191909 -0.025 0.00921773)
(-0.0190886 0.175 0.00922213)
(-0.0190886 -0.025 0.00922213)
(-0.0189863 0.175 0.0092263)
(-0.0189863 -0.025 0.0092263)
(-0.0188841 0.175 0.00923025)
(-0.0188841 -0.025 0.00923025)
(-0.0187819 0.175 0.00923398)
(-0.0187819 -0.025 0.00923398)
(-0.0186797 0.175 0.0092375)
(-0.0186797 -0.025 0.0092375)
(-0.0185776 0.175 0.0092408)
(-0.0185776 -0.025 0.0092408)
(-0.0175583 0.175 0.00926263)
(-0.0175583 -0.025 0.00926263)
(-0.0165423 0.175 0.00926569)
(-0.0165423 -0.025 0.00926569)
(-0.0155294 0.175 0.00925189)
(-0.0155294 -0.025 0.00925189)
(-0.0145191 0.175 0.00922281)
(-0.0145191 -0.025 0.00922281)
(-0.0135112 0.175 0.00917977)
(-0.0135112 -0.025 0.00917977)
(-0.0125056 0.175 0.00912387)
(-0.0125056 -0.025 0.00912387)
(-0.0115022 0.175 0.00905608)
(-0.0115022 -0.025 0.00905608)
(-0.0105007 0.175 0.00897722)
(-0.0105007 -0.025 0.00897722)
(-0.00950095 0.175 0.00888803)
(-0.00950095 -0.025 0.00888803)
(-0.00850296 0.175 0.00878915)
(-0.00850296 -0.025 0.00878915)
(-0.00750658 0.175 0.00868115)
(-0.00750658 -0.025 0.00868115)
(-0.00651171 0.175 0.00856456)
(-0.00651171 -0.025 0.00856456)
(-0.00551827 0.175 0.00843984)
(-0.00551827 -0.025 0.00843984)
(-0.0045262 0.175 0.00830742)
(-0.0045262 -0.025 0.00830742)
(-0.00353541 0.175 0.00816767)
(-0.00353541 -0.025 0.00816767)
(-0.00254585 0.175 0.00802097)
(-0.00254585 -0.025 0.00802097)
(-0.00155746 0.175 0.00786764)
(-0.00155746 -0.025 0.00786764)
(-0.000570186 0.175 0.00770798)
(-0.000570186 -0.025 0.00770798)
(0.000416022 0.175 0.00754227)
(0.000416022 -0.025 0.00754227)
(0.00140121 0.175 0.00737078)
(0.00140121 -0.025 0.00737078)
(0.00238542 0.175 0.00719375)
(0.00238542 -0.025 0.00719375)
(0.0033687 0.175 0.00701142)
(0.0033687 -0.025 0.00701142)
(0.00435108 0.175 0.00682399)
(0.00435108 -0.025 0.00682399)
(0.00533259 0.175 0.00663167)
(0.00533259 -0.025 0.00663167)
(0.00631328 0.175 0.00643466)
(0.00631328 -0.025 0.00643466)
(0.00729317 0.175 0.00623313)
(0.00729317 -0.025 0.00623313)
(0.0082723 0.175 0.00602725)
(0.0082723 -0.025 0.00602725)
(0.00925068 0.175 0.00581719)
(0.00925068 -0.025 0.00581719)
(0.0102284 0.175 0.00560309)
(0.0102284 -0.025 0.00560309)
(0.0112053 0.175 0.00538511)
(0.0112053 -0.025 0.00538511)
(0.0121817 0.175 0.00516338)
(0.0121817 -0.025 0.00516338)
(0.0131574 0.175 0.00493804)
(0.0131574 -0.025 0.00493804)
(0.0141324 0.175 0.0047092)
(0.0141324 -0.025 0.0047092)
(0.0151069 0.175 0.004477)
(0.0151069 -0.025 0.004477)
(0.0160808 0.175 0.00424153)
(0.0160808 -0.025 0.00424153)
(0.0170542 0.175 0.00400291)
(0.0170542 -0.025 0.00400291)
(0.018027 0.175 0.00376124)
(0.018027 -0.025 0.00376124)
(0.0189993 0.175 0.00351662)
(0.0189993 -0.025 0.00351662)
(0.0199711 0.175 0.00326914)
(0.0199711 -0.025 0.00326914)
(0.0209424 0.175 0.00301889)
(0.0209424 -0.025 0.00301889)
(0.0219132 0.175 0.00276595)
(0.0219132 -0.025 0.00276595)
(0.0228836 0.175 0.00251041)
(0.0228836 -0.025 0.00251041)
(0.0238535 0.175 0.00225233)
(0.0238535 -0.025 0.00225233)
(0.024823 0.175 0.0019918)
(0.024823 -0.025 0.0019918)
(0.0257921 0.175 0.00172888)
(0.0257921 -0.025 0.00172888)
(0.0267607 0.175 0.00146364)
(0.0267607 -0.025 0.00146364)
(0.027729 0.175 0.00119614)
(0.027729 -0.025 0.00119614)
(0.0286968 0.175 0.000926429)
(0.0286968 -0.025 0.000926429)
(0.0296643 0.175 0.000654572)
(0.0296643 -0.025 0.000654572)
(0.0306315 0.175 0.000380618)
(0.0306315 -0.025 0.000380618)
(0.0315982 0.175 0.000104616)
(0.0315982 -0.025 0.000104616)
(0.0325646 0.175 -0.000173389)
(0.0325646 -0.025 -0.000173389)
(0.0335307 0.175 -0.000453353)
(0.0335307 -0.025 -0.000453353)
(0.0344964 0.175 -0.000735237)
(0.0344964 -0.025 -0.000735237)
(0.0354618 0.175 -0.001019)
(0.0354618 -0.025 -0.001019)
(0.0364269 0.175 -0.00130462)
(0.0364269 -0.025 -0.00130462)
(0.0373916 0.175 -0.00159205)
(0.0373916 -0.025 -0.00159205)
(0.038356 0.175 -0.00188127)
(0.038356 -0.025 -0.00188127)
(0.0393202 0.175 -0.00217225)
(0.0393202 -0.025 -0.00217225)
(0.040284 0.175 -0.00246497)
(0.040284 -0.025 -0.00246497)
(0.0412475 0.175 -0.00275941)
(0.0412475 -0.025 -0.00275941)
(0.0422107 0.175 -0.00305554)
(0.0422107 -0.025 -0.00305554)
(0.0431736 0.175 -0.00335336)
(0.0431736 -0.025 -0.00335336)
(0.0441362 0.175 -0.00365285)
(0.0441362 -0.025 -0.00365285)
(0.0450985 0.175 -0.00395399)
(0.0450985 -0.025 -0.00395399)
(0.0460606 0.175 -0.00425678)
(0.0460606 -0.025 -0.00425678)
(0.0470223 0.175 -0.00456121)
(0.0470223 -0.025 -0.00456121)
(0.0479838 0.175 -0.00486728)
(0.0479838 -0.025 -0.00486728)
(0.048945 0.175 -0.00517499)
(0.048945 -0.025 -0.00517499)
(0.0499058 0.175 -0.00548433)
(0.0499058 -0.025 -0.00548433)
(0.0508664 0.175 -0.00579531)
(0.0508664 -0.025 -0.00579531)
(0.0518267 0.175 -0.00610794)
(0.0518267 -0.025 -0.00610794)
(0.0527867 0.175 -0.00642222)
(0.0527867 -0.025 -0.00642222)
(0.0537465 0.175 -0.00673815)
(0.0537465 -0.025 -0.00673815)
(0.0547059 0.175 -0.00705576)
(0.0547059 -0.025 -0.00705576)
(0.055665 0.175 -0.00737506)
(0.055665 -0.025 -0.00737506)
(0.0566238 0.175 -0.00769605)
(0.0566238 -0.025 -0.00769605)
(0.0575824 0.175 -0.00801877)
(0.0575824 -0.025 -0.00801877)
(0.0585406 0.175 -0.00834322)
(0.0585406 -0.025 -0.00834322)
(0.0594985 0.175 -0.00866944)
(0.0594985 -0.025 -0.00866944)
(0.0595943 0.175 -0.00870216)
(0.0595943 -0.025 -0.00870216)
(0.05969 0.175 -0.0087349)
(0.05969 -0.025 -0.0087349)
(0.0597858 0.175 -0.00876765)
(0.0597858 -0.025 -0.00876765)
(0.0598816 0.175 -0.00880042)
(0.0598816 -0.025 -0.00880042)
(0.0599773 0.175 -0.00883322)
(0.0599773 -0.025 -0.00883322)
(0.0600731 0.175 -0.00886602)
(0.0600731 -0.025 -0.00886602)
(0.0601688 0.175 -0.00889885)
(0.0601688 -0.025 -0.00889885)
(0.0602646 0.175 -0.0089317)
(0.0602646 -0.025 -0.0089317)
(0.0603603 0.175 -0.00896456)
(0.0603603 -0.025 -0.00896456)
(0.0604561 0.175 -0.00899744)
(0.0604561 -0.025 -0.00899744)
(0.0605518 0.175 -0.00903034)
(0.0605518 -0.025 -0.00903034)
(0.0606476 0.175 -0.00906326)
(0.0606476 -0.025 -0.00906326)
(0.0607433 0.175 -0.00909619)
(0.0607433 -0.025 -0.00909619)
(0.060839 0.175 -0.00912915)
(0.060839 -0.025 -0.00912915)
(0.0609347 0.175 -0.00916212)
(0.0609347 -0.025 -0.00916212)
(0.0610305 0.175 -0.00919511)
(0.0610305 -0.025 -0.00919511)
(0.0611262 0.175 -0.00922812)
(0.0611262 -0.025 -0.00922812)
(0.0612219 0.175 -0.00926115)
(0.0612219 -0.025 -0.00926115)
(0.0613176 0.175 -0.00929419)
(0.0613176 -0.025 -0.00929419)
(0.0614133 0.175 -0.00932726)
(0.0614133 -0.025 -0.00932726)
(0.0615091 0.175 -0.00936034)
(0.0615091 -0.025 -0.00936034)
(0.0616048 0.175 -0.00939344)
(0.0616048 -0.025 -0.00939344)
(0.0617005 0.175 -0.00942656)
(0.0617005 -0.025 -0.00942656)
(0.0617962 0.175 -0.0094597)
(0.0617962 -0.025 -0.0094597)
(0.0618919 0.175 -0.00949285)
(0.0618919 -0.025 -0.00949285)
(0.0619876 0.175 -0.00952603)
(0.0619876 -0.025 -0.00952603)
(0.0620832 0.175 -0.00955922)
(0.0620832 -0.025 -0.00955922)
(0.0621789 0.175 -0.00959243)
(0.0621789 -0.025 -0.00959243)
(0.0622746 0.175 -0.00962567)
(0.0622746 -0.025 -0.00962567)
(0.0623703 0.175 -0.00965892)
(0.0623703 -0.025 -0.00965892)
(0.062466 0.175 -0.00969218)
(0.062466 -0.025 -0.00969218)
(0.0625616 0.175 -0.00972547)
(0.0625616 -0.025 -0.00972547)
(0.0626573 0.175 -0.00975878)
(0.0626573 -0.025 -0.00975878)
(0.062753 0.175 -0.0097921)
(0.062753 -0.025 -0.0097921)
(0.0628486 0.175 -0.00982544)
(0.0628486 -0.025 -0.00982544)
(0.0629443 0.175 -0.00985881)
(0.0629443 -0.025 -0.00985881)
(0.06304 0.175 -0.00989219)
(0.06304 -0.025 -0.00989219)
(0.0631356 0.175 -0.00992559)
(0.0631356 -0.025 -0.00992559)
(0.0632313 0.175 -0.00995901)
(0.0632313 -0.025 -0.00995901)
(0.0633269 0.175 -0.00999244)
(0.0633269 -0.025 -0.00999244)
(0.0634226 0.175 -0.0100259)
(0.0634226 -0.025 -0.0100259)
(0.0635182 0.175 -0.0100594)
(0.0635182 -0.025 -0.0100594)
(0.0636138 0.175 -0.0100929)
(0.0636138 -0.025 -0.0100929)
(0.0637095 0.175 -0.0101264)
(0.0637095 -0.025 -0.0101264)
(0.0638051 0.175 -0.0101599)
(0.0638051 -0.025 -0.0101599)
(0.0639007 0.175 -0.0101935)
(0.0639007 -0.025 -0.0101935)
(0.0639963 0.175 -0.010227)
(0.0639963 -0.025 -0.010227)
(0.064092 0.175 -0.0102606)
(0.064092 -0.025 -0.0102606)
(0.0641876 0.175 -0.0102942)
(0.0641876 -0.025 -0.0102942)
(0.0642832 0.175 -0.0103279)
(0.0642832 -0.025 -0.0103279)
(0.0643788 0.175 -0.0103615)
(0.0643788 -0.025 -0.0103615)
(0.0644744 0.175 -0.0103952)
(0.0644744 -0.025 -0.0103952)
(0.06457 0.175 -0.0104289)
(0.06457 -0.025 -0.0104289)
(0.0646656 0.175 -0.0104626)
(0.0646656 -0.025 -0.0104626)
(0.0647612 0.175 -0.0104963)
(0.0647612 -0.025 -0.0104963)
(0.0648568 0.175 -0.0105301)
(0.0648568 -0.025 -0.0105301)
(0.0649524 0.175 -0.0105638)
(0.0649524 -0.025 -0.0105638)
(0.065048 0.175 -0.0105976)
(0.065048 -0.025 -0.0105976)
(0.0651435 0.175 -0.0106314)
(0.0651435 -0.025 -0.0106314)
(0.0652391 0.175 -0.0106653)
(0.0652391 -0.025 -0.0106653)
(0.0653347 0.175 -0.0106991)
(0.0653347 -0.025 -0.0106991)
(0.0654303 0.175 -0.010733)
(0.0654303 -0.025 -0.010733)
(0.0655258 0.175 -0.0107668)
(0.0655258 -0.025 -0.0107668)
(0.0656214 0.175 -0.0108008)
(0.0656214 -0.025 -0.0108008)
(0.065717 0.175 -0.0108347)
(0.065717 -0.025 -0.0108347)
(0.0658125 0.175 -0.0108686)
(0.0658125 -0.025 -0.0108686)
(0.0659081 0.175 -0.0109026)
(0.0659081 -0.025 -0.0109026)
(0.0660036 0.175 -0.0109366)
(0.0660036 -0.025 -0.0109366)
(0.0660992 0.175 -0.0109706)
(0.0660992 -0.025 -0.0109706)
(0.0661947 0.175 -0.0110046)
(0.0661947 -0.025 -0.0110046)
(0.0662903 0.175 -0.0110386)
(0.0662903 -0.025 -0.0110386)
(0.0663858 0.175 -0.0110727)
(0.0663858 -0.025 -0.0110727)
(0.0664813 0.175 -0.0111068)
(0.0664813 -0.025 -0.0111068)
(0.0665769 0.175 -0.0111409)
(0.0665769 -0.025 -0.0111409)
(0.0666724 0.175 -0.011175)
(0.0666724 -0.025 -0.011175)
(0.0667679 0.175 -0.0112092)
(0.0667679 -0.025 -0.0112092)
(0.0668634 0.175 -0.0112433)
(0.0668634 -0.025 -0.0112433)
(0.0669589 0.175 -0.0112775)
(0.0669589 -0.025 -0.0112775)
(0.0670544 0.175 -0.0113117)
(0.0670544 -0.025 -0.0113117)
(0.0671499 0.175 -0.011346)
(0.0671499 -0.025 -0.011346)
(0.0672455 0.175 -0.0113802)
(0.0672455 -0.025 -0.0113802)
(0.067341 0.175 -0.0114145)
(0.067341 -0.025 -0.0114145)
(0.0674365 0.175 -0.0114488)
(0.0674365 -0.025 -0.0114488)
(0.0675319 0.175 -0.0114831)
(0.0675319 -0.025 -0.0114831)
(0.0676274 0.175 -0.0115174)
(0.0676274 -0.025 -0.0115174)
(0.0677229 0.175 -0.0115518)
(0.0677229 -0.025 -0.0115518)
(0.0678184 0.175 -0.0115861)
(0.0678184 -0.025 -0.0115861)
(0.0679139 0.175 -0.0116205)
(0.0679139 -0.025 -0.0116205)
(0.0680094 0.175 -0.011655)
(0.0680094 -0.025 -0.011655)
(0.0681048 0.175 -0.0116894)
(0.0681048 -0.025 -0.0116894)
(0.0682003 0.175 -0.0117238)
(0.0682003 -0.025 -0.0117238)
(0.0682958 0.175 -0.0117583)
(0.0682958 -0.025 -0.0117583)
(0.0683912 0.175 -0.0117928)
(0.0683912 -0.025 -0.0117928)
(0.0684867 0.175 -0.0118273)
(0.0684867 -0.025 -0.0118273)
(0.0685821 0.175 -0.0118619)
(0.0685821 -0.025 -0.0118619)
(0.0686776 0.175 -0.0118965)
(0.0686776 -0.025 -0.0118965)
(0.068773 0.175 -0.011931)
(0.068773 -0.025 -0.011931)
(0.0688265 0.175 -0.0119504)
(0.0688265 -0.025 -0.0119504)
(0.0688324 -0.025 -0.0119531)
(0.0688382 -0.025 -0.011956)
(0.0688439 -0.025 -0.0119591)
(0.0688496 -0.025 -0.0119625)
(0.0688551 -0.025 -0.0119659)
(0.0688604 -0.025 -0.0119696)
(0.0688657 -0.025 -0.0119735)
(0.0688708 -0.025 -0.0119775)
(0.0688757 -0.025 -0.0119818)
(0.0688805 -0.025 -0.0119862)
(0.0688852 -0.025 -0.0119907)
(0.0688897 -0.025 -0.0119954)
(0.068894 -0.025 -0.0120003)
(0.0688982 -0.025 -0.0120053)
(0.0689022 -0.025 -0.0120105)
(0.068906 -0.025 -0.0120158)
(0.0689096 -0.025 -0.0120212)
(0.068913 -0.025 -0.0120267)
(0.0689162 -0.025 -0.0120324)
(0.0689193 -0.025 -0.0120382)
(0.0689221 -0.025 -0.012044)
(0.0689247 -0.025 -0.01205)
(0.0689272 -0.025 -0.012056)
(0.0689294 -0.025 -0.0120622)
(0.0689314 -0.025 -0.0120684)
(0.0689331 -0.025 -0.0120746)
(0.0689347 -0.025 -0.012081)
(0.068936 -0.025 -0.0120873)
(0.0689371 -0.025 -0.0120938)
(0.068938 -0.025 -0.0121002)
(0.0689387 -0.025 -0.0121067)
(0.0689392 -0.025 -0.0121132)
(0.0689394 -0.025 -0.0121197)
(0.0689394 -0.025 -0.0121262)
(0.0689391 -0.025 -0.0121327)
(0.0689387 -0.025 -0.0121392)
(0.068938 -0.025 -0.0121457)
(0.0689371 -0.025 -0.0121522)
(0.0689359 -0.025 -0.0121586)
(0.0689346 -0.025 -0.0121649)
(0.068933 -0.025 -0.0121713)
(0.0689312 -0.025 -0.0121775)
(0.0689292 -0.025 -0.0121837)
(0.068927 -0.025 -0.0121899)
(0.0689246 -0.025 -0.0121959)
(0.0689219 -0.025 -0.0122019)
(0.0689191 -0.025 -0.0122077)