/*--------------------------------*- C++ -*----------------------------------*\
| =========                 |                                                 |
| \\      /  F ield         | OpenFOAM: The Open Source CFD Toolbox           |
|  \\    /   O peration     | Version:  4.x                                   |
|   \\  /    A nd           | Web:      www.OpenFOAM.org                      |
|    \\/     M anipulation  |                                                 |
\*---------------------------------------------------------------------------*/
FoamFile
{
    version     2.0;
    format      ascii;
    class       dictionary;
    object      fvSchemes;
}
// * * * * * * * * * * * * * * * * * * * * * * * * * * * * * * * * * * * * * //

ddtSchemes
{
    default Euler;
}

gradSchemes
{
    default         Gauss linear;
    grad(p)         Gauss linear;
    grad(U)         Gauss linear;
    /*grad(alpha)     Gauss linear;*/
}

divSchemes
{
    default         none;
    div(phi,U)      Gauss linearUpwind grad(U); // for pimpleFoam
    div(phi,k)      Gauss limitedLinear 1;
    div(phi,omega)  Gauss limitedLinear 1;
    div((nuEff*dev2(T(grad(U))))) Gauss linear; // for pimpleFoam

    div(div(phi,U)) Gauss linear; // for potentialFoam

    /*div(rhoPhi,U)       Gauss linearUpwind grad(U); // for interPhaseChangeFoam*/
    /*div(phi,alpha)       Gauss vanLeer; // for interPhaseChangeFoam*/
    /*div(phirb,alpha)     Gauss linear; // for interPhaseChangeFoam*/
    /*div(((rho*nuEff)*dev2(T(grad(U))))) Gauss linear; // for interPhaseChangeFoam*/
}

laplacianSchemes
{
    default         Gauss linear limited corrected 0.5;
}

interpolationSchemes
{
    default         linear;
}

snGradSchemes
{
    default         corrected;
}

wallDist
{
    method meshWave;
}


// ************************************************************************* //
