/*--------------------------------*- C++ -*----------------------------------*\
| =========                 |                                                 |
| \\      /  F ield         | OpenFOAM: The Open Source CFD Toolbox           |
|  \\    /   O peration     | Version:  4.x                                   |
|   \\  /    A nd           | Web:      www.OpenFOAM.org                      |
|    \\/     M anipulation  |                                                 |
\*---------------------------------------------------------------------------*/
FoamFile
{
    version     2.0;
    format      ascii;
    class       dictionary;
    object      fvSolution;
}
// * * * * * * * * * * * * * * * * * * * * * * * * * * * * * * * * * * * * * //

solvers
{
    p_rgh
    {
        solver PCG;
        preconditioner
        {
            preconditioner GAMG;
            tolerance        1e-10;
            relTol           0.01;

            nVcycles         2;

            smoother         DICGaussSeidel;
            nPreSweeps       2;
            nPostSweeps      2;
            nFinestSweeps    2;

            cacheAgglomeration true;
            nCellsInCoarsestLevel 10;
            agglomerator     faceAreaPair;
            mergeLevels      1;
        };

        tolerance        1e-10;
        relTol           0.01;
        maxIter          150;
    };

    p_rghFinal
    {
        solver PCG;
        preconditioner
        {
            preconditioner GAMG;
            tolerance        1e-10;
            relTol           0.01;

            nVcycles         2;

            smoother         DICGaussSeidel;
            nPreSweeps       2;
            nPostSweeps      2;
            nFinestSweeps    2;

            cacheAgglomeration true;
            nCellsInCoarsestLevel 10;
            agglomerator     faceAreaPair;
            mergeLevels      1;
        };

        tolerance        1e-10;
        relTol           0.01;
        maxIter          150;
    };

    pcorr
    {
        solver           GAMG;
        tolerance        0.02;
        relTol           0;
        smoother         GaussSeidel;
    }

    p
    {
        $pcorr
        tolerance        1e-7;
        relTol           0.01;
    }

    pFinal
    {
        $p;
        tolerance        1e-7;
        relTol           0;
    }

    "(U|k|omega)"
    {
        solver          smoothSolver;
        smoother        symGaussSeidel;
        tolerance       1e-06;
        relTol          0.1;
    }

    "(U|k|omega)Final"
    {
        $U;
        tolerance       1e-06;
        relTol          0;
    }

    cellDisplacement
    {
        solver          GAMG;
        tolerance       1e-5;
        relTol          0;
        smoother        GaussSeidel;
    }

    Phi
    {
        solver          GAMG;
        smoother        DIC;

        tolerance       1e-06;
        relTol          0.01;
    }

    alpha.water
    {
        MULESCorr       yes;
        maxIter 1000;
        nLimiterIter 10;
        maxUnboundedness 1;
        CoCoeff 0.2;
        preconditioner DILU;
        solver PBiCG
        preconditioner DILU;
        tolerance 1e-10;
        relTol 0;
        nAlphaCorr      1;
        nAlphaSubCycles 1;
        cAlpha          0.5;
    }; 

    alpha.waterFinal
    {
        MULESCorr       yes;
        maxIter 1000;
        nLimiterIter 10;
        maxUnboundedness 1;
        CoCoeff 0.2;
        preconditioner DILU;
        solver PBiCG
        preconditioner DILU;
        tolerance 1e-10;
        relTol 0;
        nAlphaCorr      1;
        nAlphaSubCycles 1;
        cAlpha          0.5;
    }; 
}

PIMPLE
{
    correctPhi          yes;
    /*nOuterCorrectors    10; // for interPhaseChangeFoam*/
    nOuterCorrectors    2; // for interPhaseChangeFoam
    nCorrectors         2;
    nNonOrthogonalCorrectors 1;

    /*
     *residualControl // for interPhaseChangeFoam
     *{
     *    p_rgh 
     *    {
     *        relTol      0;
     *        tolerance   1e-4;
     *    }
     *    U
     *    {
     *        relTol      0;
     *        tolerance   1e-5;
     *    }
     *}
     */
}

SIMPLE
{
    correctPhi          yes;
    nOuterCorrectors    2;
    nCorrectors         1;
    nNonOrthogonalCorrectors 0;
}

relaxationFactors
{
    fields
    {
        p               0.3;
    }
    equations
    {
        "(U|k|omega)"   0.7;
        "(U|k|omega)Final" 1.0;
    }
}

cache
{
    grad(U);
}

potentialFlow
{
    nNonOrthogonalCorrectors 3;
}


// ************************************************************************* //
