/*--------------------------------*- C++ -*----------------------------------*\
| =========                 |                                                 |
| \\      /  F ield         | OpenFOAM: The Open Source CFD Toolbox           |
|  \\    /   O peration     | Version:  2.3.x                                 |
|   \\  /    A nd           | Web:      www.OpenFOAM.org                      |
|    \\/     M anipulation  |                                                 |
\*---------------------------------------------------------------------------*/
FoamFile
{
    version     2.0;
    format      ascii;
    class       dictionary;
    location    "system";
    object      topoSetDict;
}
// * * * * * * * * * * * * * * * * * * * * * * * * * * * * * * * * * * * * * //

actions         19478 ( { name x0.0415204y0.278279z-0.00545206 ; type cellSet ; action new ; source sphereToCell ; sourceInfo { centre ( 0.0415204 0.278279 -0.00545206 ) ; radius 0.004 ; } } { name x-0.0740226y0.281023z-0.0190899 ; type cellSet ; action new ; source sphereToCell ; sourceInfo { centre ( -0.0740226 0.281023 -0.0190899 ) ; radius 0.004 ; } } { name x0.0259436y0.278285z-0.00864237 ; type cellSet ; action new ; source sphereToCell ; sourceInfo { centre ( 0.0259436 0.278285 -0.00864237 ) ; radius 0.004 ; } } { name x0.0228638y0.278322z-0.00924492 ; type cellSet ; action new ; source sphereToCell ; sourceInfo { centre ( 0.0228638 0.278322 -0.00924492 ) ; radius 0.004 ; } } { name x0.0543697y0.275631z-0.00265291 ; type cellSet ; action new ; source sphereToCell ; sourceInfo { centre ( 0.0543697 0.275631 -0.00265291 ) ; radius 0.004 ; } } { name x0.0639353y0.278945z-0.00047506 ; type cellSet ; action new ; source sphereToCell ; sourceInfo { centre ( 0.0639353 0.278945 -0.00047506 ) ; radius 0.004 ; } } { name x0.0571801y0.278349z-0.0020212 ; type cellSet ; action new ; source sphereToCell ; sourceInfo { centre ( 0.0571801 0.278349 -0.0020212 ) ; radius 0.004 ; } } { name x0.0540239y0.278331z-0.00273004 ; type cellSet ; action new ; source sphereToCell ; sourceInfo { centre ( 0.0540239 0.278331 -0.00273004 ) ; radius 0.004 ; } } { name x0.0418549y0.275523z-0.00538134 ; type cellSet ; action new ; source sphereToCell ; sourceInfo { centre ( 0.0418549 0.275523 -0.00538134 ) ; radius 0.004 ; } } { name x0.0384351y0.2783z-0.00610238 ; type cellSet ; action new ; source sphereToCell ; sourceInfo { centre ( 0.0384351 0.2783 -0.00610238 ) ; radius 0.004 ; } } { name x0.0446909y0.278341z-0.00477505 ; type cellSet ; action new ; source sphereToCell ; sourceInfo { centre ( 0.0446909 0.278341 -0.00477505 ) ; radius 0.004 ; } } { name x0.0416678y0.282527z-0.00542083 ; type cellSet ; action new ; source sphereToCell ; sourceInfo { centre ( 0.0416678 0.282527 -0.00542083 ) ; radius 0.004 ; } } { name x-0.0770928y0.283181z-0.0188083 ; type cellSet ; action new ; source sphereToCell ; sourceInfo { centre ( -0.0770928 0.283181 -0.0188083 ) ; radius 0.004 ; } } { name x-0.0787732y0.282964z-0.0186158 ; type cellSet ; action new ; source sphereToCell ; sourceInfo { centre ( -0.0787732 0.282964 -0.0186158 ) ; radius 0.004 ; } } { name x-0.075571y0.280962z-0.0189595 ; type cellSet ; action new ; source sphereToCell ; sourceInfo { centre ( -0.075571 0.280962 -0.0189595 ) ; radius 0.004 ; } } { name x-0.0771163y0.280915z-0.0188064 ; type cellSet ; action new ; source sphereToCell ; sourceInfo { centre ( -0.0771163 0.280915 -0.0188064 ) ; radius 0.004 ; } } { name x-0.0755944y0.283433z-0.0189574 ; type cellSet ; action new ; source sphereToCell ; sourceInfo { centre ( -0.0755944 0.283433 -0.0189574 ) ; radius 0.004 ; } } { name x-0.0786664y0.284538z-0.0186274 ; type cellSet ; action new ; source sphereToCell ; sourceInfo { centre ( -0.0786664 0.284538 -0.0186274 ) ; radius 0.004 ; } } { name x-0.0773922y0.284671z-0.018773 ; type cellSet ; action new ; source sphereToCell ; sourceInfo { centre ( -0.0773922 0.284671 -0.018773 ) ; radius 0.004 ; } } { name x0.0628226y0.277801z-0.000732493 ; type cellSet ; action new ; source sphereToCell ; sourceInfo { centre ( 0.0628226 0.277801 -0.000732493 ) ; radius 0.004 ; } } { name x0.0664997y0.278325z0.00012248 ; type cellSet ; action new ; source sphereToCell ; sourceInfo { centre ( 0.0664997 0.278325 0.00012248 ) ; radius 0.004 ; } } { name x-0.0732374y0.278444z-0.019144 ; type cellSet ; action new ; source sphereToCell ; sourceInfo { centre ( -0.0732374 0.278444 -0.019144 ) ; radius 0.004 ; } } { name x-0.074039y0.283492z-0.0190886 ; type cellSet ; action new ; source sphereToCell ; sourceInfo { centre ( -0.074039 0.283492 -0.0190886 ) ; radius 0.004 ; } } { name x-0.0706813y0.278995z-0.0193052 ; type cellSet ; action new ; source sphereToCell ; sourceInfo { centre ( -0.0706813 0.278995 -0.0193052 ) ; radius 0.004 ; } } { name x-0.0724983y0.283509z-0.0192004 ; type cellSet ; action new ; source sphereToCell ; sourceInfo { centre ( -0.0724983 0.283509 -0.0192004 ) ; radius 0.004 ; } } { name x-0.0724892y0.281036z-0.019201 ; type cellSet ; action new ; source sphereToCell ; sourceInfo { centre ( -0.0724892 0.281036 -0.019201 ) ; radius 0.004 ; } } { name x-0.0640049y0.278401z-0.0195207 ; type cellSet ; action new ; source sphereToCell ; sourceInfo { centre ( -0.0640049 0.278401 -0.0195207 ) ; radius 0.004 ; } } { name x-0.076126y0.275077z-0.0188973 ; type cellSet ; action new ; source sphereToCell ; sourceInfo { centre ( -0.076126 0.275077 -0.0188973 ) ; radius 0.004 ; } } { name x-0.0480864y0.278965z-0.0191251 ; type cellSet ; action new ; source sphereToCell ; sourceInfo { centre ( -0.0480864 0.278965 -0.0191251 ) ; radius 0.004 ; } } { name x-0.0424157y0.278332z-0.0187461 ; type cellSet ; action new ; source sphereToCell ; sourceInfo { centre ( -0.0424157 0.278332 -0.0187461 ) ; radius 0.004 ; } } { name x-0.0516921y0.278426z-0.0193073 ; type cellSet ; action new ; source sphereToCell ; sourceInfo { centre ( -0.0516921 0.278426 -0.0193073 ) ; radius 0.004 ; } } { name x-0.0547768y0.27845z-0.0194242 ; type cellSet ; action new ; source sphereToCell ; sourceInfo { centre ( -0.0547768 0.27845 -0.0194242 ) ; radius 0.004 ; } } { name x-0.0578846y0.278399z-0.0195014 ; type cellSet ; action new ; source sphereToCell ; sourceInfo { centre ( -0.0578846 0.278399 -0.0195014 ) ; radius 0.004 ; } } { name x-0.0547809y0.282527z-0.0194243 ; type cellSet ; action new ; source sphereToCell ; sourceInfo { centre ( -0.0547809 0.282527 -0.0194243 ) ; radius 0.004 ; } } { name x-0.060947y0.27834z-0.0195343 ; type cellSet ; action new ; source sphereToCell ; sourceInfo { centre ( -0.060947 0.27834 -0.0195343 ) ; radius 0.004 ; } } { name x-0.0362432y0.278284z-0.0182206 ; type cellSet ; action new ; source sphereToCell ; sourceInfo { centre ( -0.0362432 0.278284 -0.0182206 ) ; radius 0.004 ; } } { name x-0.030014y0.278338z-0.0175851 ; type cellSet ; action new ; source sphereToCell ; sourceInfo { centre ( -0.030014 0.278338 -0.0175851 ) ; radius 0.004 ; } } { name x-0.039319y0.278282z-0.0184962 ; type cellSet ; action new ; source sphereToCell ; sourceInfo { centre ( -0.039319 0.278282 -0.0184962 ) ; radius 0.004 ; } } { name x0.00420757y0.278371z-0.0126644 ; type cellSet ; action new ; source sphereToCell ; sourceInfo { centre ( 0.00420757 0.278371 -0.0126644 ) ; radius 0.004 ; } } { name x0.00727667y0.278311z-0.0121312 ; type cellSet ; action new ; source sphereToCell ; sourceInfo { centre ( 0.00727667 0.278311 -0.0121312 ) ; radius 0.004 ; } } { name x0.0104081y0.278339z-0.0115744 ; type cellSet ; action new ; source sphereToCell ; sourceInfo { centre ( 0.0104081 0.278339 -0.0115744 ) ; radius 0.004 ; } } { name x0.00166836y0.278978z-0.0130964 ; type cellSet ; action new ; source sphereToCell ; sourceInfo { centre ( 0.00166836 0.278978 -0.0130964 ) ; radius 0.004 ; } } { name x-0.00826582y0.275387z-0.0146945 ; type cellSet ; action new ; source sphereToCell ; sourceInfo { centre ( -0.00826582 0.275387 -0.0146945 ) ; radius 0.004 ; } } { name x-0.00200247y0.278344z-0.013704 ; type cellSet ; action new ; source sphereToCell ; sourceInfo { centre ( -0.00200247 0.278344 -0.013704 ) ; radius 0.004 ; } } { name x-0.00826542y0.278338z-0.0146944 ; type cellSet ; action new ; source sphereToCell ; sourceInfo { centre ( -0.00826542 0.278338 -0.0146944 ) ; radius 0.004 ; } } { name x-0.0144775y0.278348z-0.0156131 ; type cellSet ; action new ; source sphereToCell ; sourceInfo { centre ( -0.0144775 0.278348 -0.0156131 ) ; radius 0.004 ; } } { name x0.0262992y0.275571z-0.00857244 ; type cellSet ; action new ; source sphereToCell ; sourceInfo { centre ( 0.0262992 0.275571 -0.00857244 ) ; radius 0.004 ; } } { name x0.035863y0.278912z-0.00663785 ; type cellSet ; action new ; source sphereToCell ; sourceInfo { centre ( 0.035863 0.278912 -0.00663785 ) ; radius 0.004 ; } } { name x0.0385431y0.28253z-0.00607974 ; type cellSet ; action new ; source sphereToCell ; sourceInfo { centre ( 0.0385431 0.28253 -0.00607974 ) ; radius 0.004 ; } } { name x0.0348004y0.277854z-0.00685712 ; type cellSet ; action new ; source sphereToCell ; sourceInfo { centre ( 0.0348004 0.277854 -0.00685712 ) ; radius 0.004 ; } } { name x0.0291137y0.278344z-0.00801229 ; type cellSet ; action new ; source sphereToCell ; sourceInfo { centre ( 0.0291137 0.278344 -0.00801229 ) ; radius 0.004 ; } } { name x0.0260786y0.282527z-0.0086158 ; type cellSet ; action new ; source sphereToCell ; sourceInfo { centre ( 0.0260786 0.282527 -0.0086158 ) ; radius 0.004 ; } } { name x0.0103939y0.275399z-0.011577 ; type cellSet ; action new ; source sphereToCell ; sourceInfo { centre ( 0.0103939 0.275399 -0.011577 ) ; radius 0.004 ; } } { name x0.0225888y0.275z-0.00929822 ; type cellSet ; action new ; source sphereToCell ; sourceInfo { centre ( 0.0225888 0.275 -0.00929822 ) ; radius 0.004 ; } } { name x0.0229569y0.28253z-0.0092268 ; type cellSet ; action new ; source sphereToCell ; sourceInfo { centre ( 0.0229569 0.28253 -0.0092268 ) ; radius 0.004 ; } } { name x0.0202812y0.278937z-0.00974245 ; type cellSet ; action new ; source sphereToCell ; sourceInfo { centre ( 0.0202812 0.278937 -0.00974245 ) ; radius 0.004 ; } } { name x0.0135313y0.278342z-0.0110073 ; type cellSet ; action new ; source sphereToCell ; sourceInfo { centre ( 0.0135313 0.278342 -0.0110073 ) ; radius 0.004 ; } } { name x0.056928y0.275107z-0.00207824 ; type cellSet ; action new ; source sphereToCell ; sourceInfo { centre ( 0.056928 0.275107 -0.00207824 ) ; radius 0.004 ; } } { name x0.0599958y0.275039z-0.00138157 ; type cellSet ; action new ; source sphereToCell ; sourceInfo { centre ( 0.0599958 0.275039 -0.00138157 ) ; radius 0.004 ; } } { name x0.0532245y0.27457z-0.00290831 ; type cellSet ; action new ; source sphereToCell ; sourceInfo { centre ( 0.0532245 0.27457 -0.00290831 ) ; radius 0.004 ; } } { name x0.0475475y0.27505z-0.00415717 ; type cellSet ; action new ; source sphereToCell ; sourceInfo { centre ( 0.0475475 0.27505 -0.00415717 ) ; radius 0.004 ; } } { name x0.06347y0.282525z-0.00058265 ; type cellSet ; action new ; source sphereToCell ; sourceInfo { centre ( 0.06347 0.282525 -0.00058265 ) ; radius 0.004 ; } } { name x0.0602838y0.278325z-0.00131581 ; type cellSet ; action new ; source sphereToCell ; sourceInfo { centre ( 0.0602838 0.278325 -0.00131581 ) ; radius 0.004 ; } } { name x0.0573151y0.282528z-0.00199061 ; type cellSet ; action new ; source sphereToCell ; sourceInfo { centre ( 0.0573151 0.282528 -0.00199061 ) ; radius 0.004 ; } } { name x0.0514502y0.278904z-0.00330186 ; type cellSet ; action new ; source sphereToCell ; sourceInfo { centre ( 0.0514502 0.278904 -0.00330186 ) ; radius 0.004 ; } } { name x0.0478105y0.278371z-0.00409998 ; type cellSet ; action new ; source sphereToCell ; sourceInfo { centre ( 0.0478105 0.278371 -0.00409998 ) ; radius 0.004 ; } } { name x0.0448015y0.282527z-0.00475127 ; type cellSet ; action new ; source sphereToCell ; sourceInfo { centre ( 0.0448015 0.282527 -0.00475127 ) ; radius 0.004 ; } } { name x0.054138y0.28253z-0.00270461 ; type cellSet ; action new ; source sphereToCell ; sourceInfo { centre ( 0.054138 0.28253 -0.00270461 ) ; radius 0.004 ; } } { name x0.0477951y0.272389z-0.00410362 ; type cellSet ; action new ; source sphereToCell ; sourceInfo { centre ( 0.0477951 0.272389 -0.00410362 ) ; radius 0.004 ; } } { name x0.0444311y0.275033z-0.00483094 ; type cellSet ; action new ; source sphereToCell ; sourceInfo { centre ( 0.0444311 0.275033 -0.00483094 ) ; radius 0.004 ; } } { name x0.0407149y0.274462z-0.00562288 ; type cellSet ; action new ; source sphereToCell ; sourceInfo { centre ( 0.0407149 0.274462 -0.00562288 ) ; radius 0.004 ; } } { name x0.0381505y0.274975z-0.00616186 ; type cellSet ; action new ; source sphereToCell ; sourceInfo { centre ( 0.0381505 0.274975 -0.00616186 ) ; radius 0.004 ; } } { name x-0.0789834y0.271857z-0.0185818 ; type cellSet ; action new ; source sphereToCell ; sourceInfo { centre ( -0.0789834 0.271857 -0.0185818 ) ; radius 0.004 ; } } { name x-0.078019y0.282543z-0.0187075 ; type cellSet ; action new ; source sphereToCell ; sourceInfo { centre ( -0.078019 0.282543 -0.0187075 ) ; radius 0.004 ; } } { name x-0.0790234y0.281172z-0.0185858 ; type cellSet ; action new ; source sphereToCell ; sourceInfo { centre ( -0.0790234 0.281172 -0.0185858 ) ; radius 0.004 ; } } { name x-0.0801987y0.282815z-0.0184264 ; type cellSet ; action new ; source sphereToCell ; sourceInfo { centre ( -0.0801987 0.282815 -0.0184264 ) ; radius 0.004 ; } } { name x-0.0802599y0.284476z-0.0184134 ; type cellSet ; action new ; source sphereToCell ; sourceInfo { centre ( -0.0802599 0.284476 -0.0184134 ) ; radius 0.004 ; } } { name x-0.0762781y0.278376z-0.0188837 ; type cellSet ; action new ; source sphereToCell ; sourceInfo { centre ( -0.0762781 0.278376 -0.0188837 ) ; radius 0.004 ; } } { name x-0.0790884y0.274967z-0.0185657 ; type cellSet ; action new ; source sphereToCell ; sourceInfo { centre ( -0.0790884 0.274967 -0.0185657 ) ; radius 0.004 ; } } { name x-0.0784062y0.28073z-0.0186608 ; type cellSet ; action new ; source sphereToCell ; sourceInfo { centre ( -0.0784062 0.28073 -0.0186608 ) ; radius 0.004 ; } } { name x0.063125y0.275059z-0.000662542 ; type cellSet ; action new ; source sphereToCell ; sourceInfo { centre ( 0.063125 0.275059 -0.000662542 ) ; radius 0.004 ; } } { name x0.0602864y0.272427z-0.00131527 ; type cellSet ; action new ; source sphereToCell ; sourceInfo { centre ( 0.0602864 0.272427 -0.00131527 ) ; radius 0.004 ; } } { name x0.0661692y0.274996z4.51376e-05 ; type cellSet ; action new ; source sphereToCell ; sourceInfo { centre ( 0.0661692 0.274996 4.51376e-05 ) ; radius 0.004 ; } } { name x0.0695711y0.278275z0.000845935 ; type cellSet ; action new ; source sphereToCell ; sourceInfo { centre ( 0.0695711 0.278275 0.000845935 ) ; radius 0.004 ; } } { name x0.0666118y0.28253z0.000148765 ; type cellSet ; action new ; source sphereToCell ; sourceInfo { centre ( 0.0666118 0.28253 0.000148765 ) ; radius 0.004 ; } } { name x-0.0640261y0.2751z-0.0195205 ; type cellSet ; action new ; source sphereToCell ; sourceInfo { centre ( -0.0640261 0.2751 -0.0195205 ) ; radius 0.004 ; } } { name x-0.0731262y0.275136z-0.0191514 ; type cellSet ; action new ; source sphereToCell ; sourceInfo { centre ( -0.0731262 0.275136 -0.0191514 ) ; radius 0.004 ; } } { name x-0.0670597y0.275153z-0.019456 ; type cellSet ; action new ; source sphereToCell ; sourceInfo { centre ( -0.0670597 0.275153 -0.019456 ) ; radius 0.004 ; } } { name x-0.0696491y0.277924z-0.0193575 ; type cellSet ; action new ; source sphereToCell ; sourceInfo { centre ( -0.0696491 0.277924 -0.0193575 ) ; radius 0.004 ; } } { name x-0.0701087y0.275153z-0.0193344 ; type cellSet ; action new ; source sphereToCell ; sourceInfo { centre ( -0.0701087 0.275153 -0.0193344 ) ; radius 0.004 ; } } { name x-0.0671014y0.278457z-0.0194545 ; type cellSet ; action new ; source sphereToCell ; sourceInfo { centre ( -0.0671014 0.278457 -0.0194545 ) ; radius 0.004 ; } } { name x-0.0701805y0.282529z-0.0193305 ; type cellSet ; action new ; source sphereToCell ; sourceInfo { centre ( -0.0701805 0.282529 -0.0193305 ) ; radius 0.004 ; } } { name x-0.0640288y0.282527z-0.0195204 ; type cellSet ; action new ; source sphereToCell ; sourceInfo { centre ( -0.0640288 0.282527 -0.0195204 ) ; radius 0.004 ; } } { name x-0.0760214y0.271848z-0.0189089 ; type cellSet ; action new ; source sphereToCell ; sourceInfo { centre ( -0.0760214 0.271848 -0.0189089 ) ; radius 0.004 ; } } { name x-0.0491268y0.277871z-0.0191831 ; type cellSet ; action new ; source sphereToCell ; sourceInfo { centre ( -0.0491268 0.277871 -0.0191831 ) ; radius 0.004 ; } } { name x-0.0425098y0.275023z-0.0187533 ; type cellSet ; action new ; source sphereToCell ; sourceInfo { centre ( -0.0425098 0.275023 -0.0187533 ) ; radius 0.004 ; } } { name x-0.051691y0.282531z-0.0193072 ; type cellSet ; action new ; source sphereToCell ; sourceInfo { centre ( -0.051691 0.282531 -0.0193072 ) ; radius 0.004 ; } } { name x-0.0454932y0.27838z-0.0189646 ; type cellSet ; action new ; source sphereToCell ; sourceInfo { centre ( -0.0454932 0.27838 -0.0189646 ) ; radius 0.004 ; } } { name x-0.0485873y0.282522z-0.019153 ; type cellSet ; action new ; source sphereToCell ; sourceInfo { centre ( -0.0485873 0.282522 -0.019153 ) ; radius 0.004 ; } } { name x-0.0423827y0.282529z-0.0187436 ; type cellSet ; action new ; source sphereToCell ; sourceInfo { centre ( -0.0423827 0.282529 -0.0187436 ) ; radius 0.004 ; } } { name x-0.0517379y0.275123z-0.0193094 ; type cellSet ; action new ; source sphereToCell ; sourceInfo { centre ( -0.0517379 0.275123 -0.0193094 ) ; radius 0.004 ; } } { name x-0.0548111y0.275146z-0.0194253 ; type cellSet ; action new ; source sphereToCell ; sourceInfo { centre ( -0.0548111 0.275146 -0.0194253 ) ; radius 0.004 ; } } { name x-0.0578615y0.275097z-0.019501 ; type cellSet ; action new ; source sphereToCell ; sourceInfo { centre ( -0.0578615 0.275097 -0.019501 ) ; radius 0.004 ; } } { name x-0.0609462y0.275034z-0.0195344 ; type cellSet ; action new ; source sphereToCell ; sourceInfo { centre ( -0.0609462 0.275034 -0.0195344 ) ; radius 0.004 ; } } { name x-0.0578656y0.282527z-0.0195011 ; type cellSet ; action new ; source sphereToCell ; sourceInfo { centre ( -0.0578656 0.282527 -0.0195011 ) ; radius 0.004 ; } } { name x-0.060949y0.282527z-0.0195343 ; type cellSet ; action new ; source sphereToCell ; sourceInfo { centre ( -0.060949 0.282527 -0.0195343 ) ; radius 0.004 ; } } { name x-0.0170694y0.278945z-0.0159762 ; type cellSet ; action new ; source sphereToCell ; sourceInfo { centre ( -0.0170694 0.278945 -0.0159762 ) ; radius 0.004 ; } } { name x-0.0269014y0.278341z-0.0172316 ; type cellSet ; action new ; source sphereToCell ; sourceInfo { centre ( -0.0269014 0.278341 -0.0172316 ) ; radius 0.004 ; } } { name x-0.020863y0.275025z-0.016484 ; type cellSet ; action new ; source sphereToCell ; sourceInfo { centre ( -0.020863 0.275025 -0.016484 ) ; radius 0.004 ; } } { name x-0.0237993y0.278334z-0.0168573 ; type cellSet ; action new ; source sphereToCell ; sourceInfo { centre ( -0.0237993 0.278334 -0.0168573 ) ; radius 0.004 ; } } { name x-0.0207174y0.278378z-0.0164652 ; type cellSet ; action new ; source sphereToCell ; sourceInfo { centre ( -0.0207174 0.278378 -0.0164652 ) ; radius 0.004 ; } } { name x-0.0237331y0.282526z-0.0168492 ; type cellSet ; action new ; source sphereToCell ; sourceInfo { centre ( -0.0237331 0.282526 -0.0168492 ) ; radius 0.004 ; } } { name x-0.0270411y0.275024z-0.0172479 ; type cellSet ; action new ; source sphereToCell ; sourceInfo { centre ( -0.0270411 0.275024 -0.0172479 ) ; radius 0.004 ; } } { name x-0.030129y0.275092z-0.0175977 ; type cellSet ; action new ; source sphereToCell ; sourceInfo { centre ( -0.030129 0.275092 -0.0175977 ) ; radius 0.004 ; } } { name x-0.0331165y0.278338z-0.0179139 ; type cellSet ; action new ; source sphereToCell ; sourceInfo { centre ( -0.0331165 0.278338 -0.0179139 ) ; radius 0.004 ; } } { name x-0.0330567y0.275418z-0.0179078 ; type cellSet ; action new ; source sphereToCell ; sourceInfo { centre ( -0.0330567 0.275418 -0.0179078 ) ; radius 0.004 ; } } { name x-0.0357829y0.276009z-0.0181775 ; type cellSet ; action new ; source sphereToCell ; sourceInfo { centre ( -0.0357829 0.276009 -0.0181775 ) ; radius 0.004 ; } } { name x-0.0361733y0.282526z-0.0182141 ; type cellSet ; action new ; source sphereToCell ; sourceInfo { centre ( -0.0361733 0.282526 -0.0182141 ) ; radius 0.004 ; } } { name x-0.0394468y0.274973z-0.0185071 ; type cellSet ; action new ; source sphereToCell ; sourceInfo { centre ( -0.0394468 0.274973 -0.0185071 ) ; radius 0.004 ; } } { name x-0.0299623y0.282526z-0.0175794 ; type cellSet ; action new ; source sphereToCell ; sourceInfo { centre ( -0.0299623 0.282526 -0.0175794 ) ; radius 0.004 ; } } { name x-0.0392768y0.282526z-0.0184926 ; type cellSet ; action new ; source sphereToCell ; sourceInfo { centre ( -0.0392768 0.282526 -0.0184926 ) ; radius 0.004 ; } } { name x-0.0022541y0.275016z-0.013745 ; type cellSet ; action new ; source sphereToCell ; sourceInfo { centre ( -0.0022541 0.275016 -0.013745 ) ; radius 0.004 ; } } { name x0.00767229y0.276055z-0.0120617 ; type cellSet ; action new ; source sphereToCell ; sourceInfo { centre ( 0.00767229 0.276055 -0.0120617 ) ; radius 0.004 ; } } { name x0.00959569y0.273985z-0.0117202 ; type cellSet ; action new ; source sphereToCell ; sourceInfo { centre ( 0.00959569 0.273985 -0.0117202 ) ; radius 0.004 ; } } { name x0.000577688y0.277835z-0.0132791 ; type cellSet ; action new ; source sphereToCell ; sourceInfo { centre ( 0.000577688 0.277835 -0.0132791 ) ; radius 0.004 ; } } { name x0.00395304y0.275054z-0.0127082 ; type cellSet ; action new ; source sphereToCell ; sourceInfo { centre ( 0.00395304 0.275054 -0.0127082 ) ; radius 0.004 ; } } { name x0.0042568y0.282527z-0.0126559 ; type cellSet ; action new ; source sphereToCell ; sourceInfo { centre ( 0.0042568 0.282527 -0.0126559 ) ; radius 0.004 ; } } { name x0.00737497y0.282529z-0.0121139 ; type cellSet ; action new ; source sphereToCell ; sourceInfo { centre ( 0.00737497 0.282529 -0.0121139 ) ; radius 0.004 ; } } { name x0.0104942y0.282527z-0.011559 ; type cellSet ; action new ; source sphereToCell ; sourceInfo { centre ( 0.0104942 0.282527 -0.011559 ) ; radius 0.004 ; } } { name x0.00170107y0.281703z-0.0130908 ; type cellSet ; action new ; source sphereToCell ; sourceInfo { centre ( 0.00170107 0.281703 -0.0130908 ) ; radius 0.004 ; } } { name x-0.00514212y0.278343z-0.0142081 ; type cellSet ; action new ; source sphereToCell ; sourceInfo { centre ( -0.00514212 0.278343 -0.0142081 ) ; radius 0.004 ; } } { name x-0.00533757y0.275043z-0.014239 ; type cellSet ; action new ; source sphereToCell ; sourceInfo { centre ( -0.00533757 0.275043 -0.014239 ) ; radius 0.004 ; } } { name x-0.010982y0.27603z-0.0151044 ; type cellSet ; action new ; source sphereToCell ; sourceInfo { centre ( -0.010982 0.27603 -0.0151044 ) ; radius 0.004 ; } } { name x-0.00903338y0.273962z-0.0148117 ; type cellSet ; action new ; source sphereToCell ; sourceInfo { centre ( -0.00903338 0.273962 -0.0148117 ) ; radius 0.004 ; } } { name x-0.0146794y0.275034z-0.0156419 ; type cellSet ; action new ; source sphereToCell ; sourceInfo { centre ( -0.0146794 0.275034 -0.0156419 ) ; radius 0.004 ; } } { name x-0.00191849y0.282508z-0.0136903 ; type cellSet ; action new ; source sphereToCell ; sourceInfo { centre ( -0.00191849 0.282508 -0.0136903 ) ; radius 0.004 ; } } { name x-0.00819228y0.282527z-0.0146832 ; type cellSet ; action new ; source sphereToCell ; sourceInfo { centre ( -0.00819228 0.282527 -0.0146832 ) ; radius 0.004 ; } } { name x-0.0113937y0.278313z-0.0151652 ; type cellSet ; action new ; source sphereToCell ; sourceInfo { centre ( -0.0113937 0.278313 -0.0151652 ) ; radius 0.004 ; } } { name x-0.0144196y0.282528z-0.0156048 ; type cellSet ; action new ; source sphereToCell ; sourceInfo { centre ( -0.0144196 0.282528 -0.0156048 ) ; radius 0.004 ; } } { name x0.0350963y0.27509z-0.006796 ; type cellSet ; action new ; source sphereToCell ; sourceInfo { centre ( 0.0350963 0.27509 -0.006796 ) ; radius 0.004 ; } } { name x0.0251667y0.274511z-0.00879547 ; type cellSet ; action new ; source sphereToCell ; sourceInfo { centre ( 0.0251667 0.274511 -0.00879547 ) ; radius 0.004 ; } } { name x0.0319991y0.275072z-0.00742983 ; type cellSet ; action new ; source sphereToCell ; sourceInfo { centre ( 0.0319991 0.275072 -0.00742983 ) ; radius 0.004 ; } } { name x0.0322619y0.27241z-0.00737668 ; type cellSet ; action new ; source sphereToCell ; sourceInfo { centre ( 0.0322619 0.27241 -0.00737668 ) ; radius 0.004 ; } } { name x0.0288874y0.275061z-0.00805767 ; type cellSet ; action new ; source sphereToCell ; sourceInfo { centre ( 0.0288874 0.275061 -0.00805767 ) ; radius 0.004 ; } } { name x0.0353918y0.282523z-0.00673501 ; type cellSet ; action new ; source sphereToCell ; sourceInfo { centre ( 0.0353918 0.282523 -0.00673501 ) ; radius 0.004 ; } } { name x0.0322242y0.278381z-0.00738419 ; type cellSet ; action new ; source sphereToCell ; sourceInfo { centre ( 0.0322242 0.278381 -0.00738419 ) ; radius 0.004 ; } } { name x0.0292238y0.282527z-0.00799023 ; type cellSet ; action new ; source sphereToCell ; sourceInfo { centre ( 0.0292238 0.282527 -0.00799023 ) ; radius 0.004 ; } } { name x0.0223657y0.271851z-0.00934125 ; type cellSet ; action new ; source sphereToCell ; sourceInfo { centre ( 0.0223657 0.271851 -0.00934125 ) ; radius 0.004 ; } } { name x0.0133044y0.275028z-0.0110489 ; type cellSet ; action new ; source sphereToCell ; sourceInfo { centre ( 0.0133044 0.275028 -0.0110489 ) ; radius 0.004 ; } } { name x0.0192182y0.277873z-0.00994505 ; type cellSet ; action new ; source sphereToCell ; sourceInfo { centre ( 0.0192182 0.277873 -0.00994505 ) ; radius 0.004 ; } } { name x0.0195395y0.275105z-0.00988379 ; type cellSet ; action new ; source sphereToCell ; sourceInfo { centre ( 0.0195395 0.275105 -0.00988379 ) ; radius 0.004 ; } } { name x0.0164334y0.27507z-0.0104695 ; type cellSet ; action new ; source sphereToCell ; sourceInfo { centre ( 0.0164334 0.27507 -0.0104695 ) ; radius 0.004 ; } } { name x0.0167122y0.272409z-0.0104176 ; type cellSet ; action new ; source sphereToCell ; sourceInfo { centre ( 0.0167122 0.272409 -0.0104176 ) ; radius 0.004 ; } } { name x0.0198045y0.282525z-0.00983317 ; type cellSet ; action new ; source sphereToCell ; sourceInfo { centre ( 0.0198045 0.282525 -0.00983317 ) ; radius 0.004 ; } } { name x0.0166366y0.27838z-0.0104317 ; type cellSet ; action new ; source sphereToCell ; sourceInfo { centre ( 0.0166366 0.27838 -0.0104317 ) ; radius 0.004 ; } } { name x0.0136284y0.282527z-0.0109894 ; type cellSet ; action new ; source sphereToCell ; sourceInfo { centre ( 0.0136284 0.282527 -0.0109894 ) ; radius 0.004 ; } } { name x0.0566164y0.271927z-0.00214851 ; type cellSet ; action new ; source sphereToCell ; sourceInfo { centre ( 0.0566164 0.271927 -0.00214851 ) ; radius 0.004 ; } } { name x0.0535441y0.271939z-0.00283694 ; type cellSet ; action new ; source sphereToCell ; sourceInfo { centre ( 0.0535441 0.271939 -0.00283694 ) ; radius 0.004 ; } } { name x0.0591716y0.271381z-0.00156965 ; type cellSet ; action new ; source sphereToCell ; sourceInfo { centre ( 0.0591716 0.271381 -0.00156965 ) ; radius 0.004 ; } } { name x0.0503729y0.277821z-0.00353934 ; type cellSet ; action new ; source sphereToCell ; sourceInfo { centre ( 0.0503729 0.277821 -0.00353934 ) ; radius 0.004 ; } } { name x0.050651y0.275063z-0.00347799 ; type cellSet ; action new ; source sphereToCell ; sourceInfo { centre ( 0.050651 0.275063 -0.00347799 ) ; radius 0.004 ; } } { name x0.0503881y0.271895z-0.00353586 ; type cellSet ; action new ; source sphereToCell ; sourceInfo { centre ( 0.0503881 0.271895 -0.00353586 ) ; radius 0.004 ; } } { name x0.0604098y0.282527z-0.00128701 ; type cellSet ; action new ; source sphereToCell ; sourceInfo { centre ( 0.0604098 0.282527 -0.00128701 ) ; radius 0.004 ; } } { name x0.0509841y0.282536z-0.00340454 ; type cellSet ; action new ; source sphereToCell ; sourceInfo { centre ( 0.0509841 0.282536 -0.00340454 ) ; radius 0.004 ; } } { name x0.0478857y0.282516z-0.0040837 ; type cellSet ; action new ; source sphereToCell ; sourceInfo { centre ( 0.0478857 0.282516 -0.0040837 ) ; radius 0.004 ; } } { name x0.046725y0.271393z-0.00433611 ; type cellSet ; action new ; source sphereToCell ; sourceInfo { centre ( 0.046725 0.271393 -0.00433611 ) ; radius 0.004 ; } } { name x0.0441501y0.271883z-0.0048912 ; type cellSet ; action new ; source sphereToCell ; sourceInfo { centre ( 0.0441501 0.271883 -0.0048912 ) ; radius 0.004 ; } } { name x0.0410675y0.271896z-0.00554817 ; type cellSet ; action new ; source sphereToCell ; sourceInfo { centre ( 0.0410675 0.271896 -0.00554817 ) ; radius 0.004 ; } } { name x0.0379023y0.271832z-0.00621359 ; type cellSet ; action new ; source sphereToCell ; sourceInfo { centre ( 0.0379023 0.271832 -0.00621359 ) ; radius 0.004 ; } } { name x-0.0789462y0.268727z-0.0185861 ; type cellSet ; action new ; source sphereToCell ; sourceInfo { centre ( -0.0789462 0.268727 -0.0185861 ) ; radius 0.004 ; } } { name x-0.0819581y0.271933z-0.0181586 ; type cellSet ; action new ; source sphereToCell ; sourceInfo { centre ( -0.0819581 0.271933 -0.0181586 ) ; radius 0.004 ; } } { name x-0.0815751y0.274476z-0.0182184 ; type cellSet ; action new ; source sphereToCell ; sourceInfo { centre ( -0.0815751 0.274476 -0.0182184 ) ; radius 0.004 ; } } { name x-0.0801883y0.28081z-0.0184302 ; type cellSet ; action new ; source sphereToCell ; sourceInfo { centre ( -0.0801883 0.28081 -0.0184302 ) ; radius 0.004 ; } } { name x-0.0817996y0.283027z-0.018185 ; type cellSet ; action new ; source sphereToCell ; sourceInfo { centre ( -0.0817996 0.283027 -0.018185 ) ; radius 0.004 ; } } { name x-0.0814861y0.284596z-0.0182229 ; type cellSet ; action new ; source sphereToCell ; sourceInfo { centre ( -0.0814861 0.284596 -0.0182229 ) ; radius 0.004 ; } } { name x-0.0793015y0.278249z-0.0185397 ; type cellSet ; action new ; source sphereToCell ; sourc